LAMMPS (10 Aug 2015)
read_restart    restart.*
  orthogonal box = (-7.72748 -7.72748 -32.5627) to (58.7275 58.7275 32.5627)
  6016 atoms
  1792 bonds
  2048 angles
include 	forcefield.elba
pair_style lj/sf/dipole/sf 12.0
special_bonds lj/coul 0.0 1.0 1.0
bond_style harmonic
angle_style hybrid cosine/squared dipole

mass    1   40.000
mass    2   90.000
mass    3   90.000
mass    4   62.000
mass    5   62.000
mass    6   42.000
mass    7   42.000

set type 1 diameter 5.0 # wat dipole
  4096 settings made for diameter
set type 4 diameter 12.7 # gly dipole
  128 settings made for diameter
set type 5 diameter 12.7 # est dipole
  256 settings made for diameter

pair_coeff    1    1	  0.550  3.050 # wat-wat
pair_coeff    1    2	  0.725  4.225 # wat-cho
pair_coeff    1    3	  0.943  4.125 # wat-pho
pair_coeff    1    4	  0.651  3.825 # wat-gly
pair_coeff    1    5	  0.710  3.825 # wat-est
pair_coeff    1    6	  0.554  3.775 # wat-tail
pair_coeff    1    7	  0.609  3.775 # wat-ami
pair_coeff    2    2	  1.434  5.400 # cho-cho
pair_coeff    2    3	  1.434  5.300 # cho-pho
pair_coeff    2    4	  1.171  5.000 # cho-gly
pair_coeff    2    5	  1.171  5.000 # cho-est
pair_coeff    2    6	  1.095  4.950 # cho-tail
pair_coeff    2    7	  1.095  4.950 # cho-ami
pair_coeff    3    3	  1.434  5.200 # pho-pho
pair_coeff    3    4	  1.171  4.900 # pho-gly
pair_coeff    3    5	  1.171  4.900 # pho-est
pair_coeff    3    6	  1.095  4.850 # pho-tail
pair_coeff    3    7	  1.424  4.850 # pho-ami
pair_coeff    4    4	  0.956  4.600 # gly-gly
pair_coeff    4    5	  0.956  4.600 # gly-est
pair_coeff    4    6	  0.894  4.550 # gly-tail
pair_coeff    4    7	  0.984  4.550 # gly-ami
pair_coeff    5    5	  0.956  4.600 # est-est
pair_coeff    5    6	  0.894  4.550 # est-tail
pair_coeff    5    7	  1.163  4.550 # est-ami
pair_coeff    6    6	  0.837  4.500 # tail-tail
pair_coeff    6    7	  0.837  4.500 # tail-ami
pair_coeff    7    7	  0.837  4.500 # ami-ami

bond_coeff    1    1.506  4.770 # cho-pho
bond_coeff    2    1.506  4.410 # pho-gly
bond_coeff    3    1.506  4.140 # gly-est
bond_coeff    4    1.506  4.095 # est-tail
bond_coeff    5    1.506  4.050 # tail-tail
bond_coeff    6    1.506  4.365 # ami-pho

angle_coeff    1  cosine/squared   3.585  115.00
angle_coeff    2  cosine/squared   3.585   90.00
angle_coeff    3  cosine/squared   3.585  180.00
angle_coeff    4  cosine/squared   3.585  120.00
angle_coeff    5  dipole           1.195    0.00

reset_timestep  0

variable	nLips equal 128 # total number of lipids
variable	nWats equal 4096 # total number of waters
variable	watVol equal 30.0 # water molecular volume (~30 A^3)
variable	atmA__in__mN_m equal 0.01013 # 1 atm*A = 0.01013 mN/m

variable	Nprd equal 10000 # production
variable	Nthe equal 1000
variable	Ndum equal 1000
variable	Ne equal 10
variable	Nr equal 1000
variable	Nf equal 10000
variable	Nthe_e equal 1000/10
variable	Dz equal 1.0

group		lip type 2 3 4 5 6 7
1920 atoms in group lip
group		head type 2 3 7
256 atoms in group head
group		wat type 1
4096 atoms in group wat
group		chol type 2
64 atoms in group chol
group		phos type 3
128 atoms in group phos
group		gly type 4
128 atoms in group gly
group		est type 5
256 atoms in group est
group		tail type 6
1280 atoms in group tail
group		ami type 7
64 atoms in group ami

timestep	10
neighbor	1 bin
neigh_modify	delay 0

fix		integrate all nve/sphere update dipole
fix 		thermo all langevin 303 303 1000 9 omega yes zero yes
fix		baro all press/berendsen aniso 1 1 1000 couple xy modulus 21740
fix             removeMomentum all momentum 100 linear 1 1 1 # angular

dump		trj all custom 1000 dump.*.trj id type mol x y z mux muy muz
dump_modify	trj sort id pad 9

# compute and average area and volume per lipid:
variable	lipArea equal lx*ly/(128/2)
fix		lipArea lip ave/time 10 100 1000 v_lipArea
variable	lipVol equal (vol-(4096*30))/128
fix		lipVol lip ave/time 10 100 1000 v_lipVol

# compute and average pressure:
variable	P equal press
fix 		P all ave/time 10 100 1000 v_P

# compute and average total (translational + rotational) temperature:
compute 	tempTot all temp/sphere dof all
fix 		tempTot all ave/time 10 100 1000 c_tempTot
#compute_modify  tempTot extra 3 # default -> no effect

# compute and average rotational temperature:
compute 	tempRot all temp/sphere dof rotate
fix 		tempRot all ave/time 10 100 1000 c_tempRot

thermo_style custom step press f_P temp f_tempTot f_tempRot f_lipArea f_lipVol
#thermo_modify   temp tempTot
thermo		1000

# compute and average surface tension (gamma) per monolayer:
variable	gamma equal (0.5*lz*(pzz-0.5*(pxx+pyy))/3)*0.01013
fix	gamma all ave/time 10 100 1000 v_gamma file gamma.dat

# compute and average interface area (bilayer assumed parallel to xy plane):
variable	xyArea equal lx*ly
fix 		xyArea all ave/time 1 1 10 v_xyArea file xyArea.dat

# compute and average box volume:
variable	boxVol equal vol
fix 		boxVol all ave/time 1 1 10 v_boxVol file boxVol.dat

compute LIP lip chunk/atom bin/1d z center 1 units box
fix numDensLip lip ave/chunk 10 1000 10000 LIP density/number     file numDensLip.zProfile

compute WAT wat chunk/atom bin/1d z center 1 units box
fix numDensWat wat ave/chunk 10 1000 10000 WAT density/number     file numDensWat.zProfile

compute CHOL chol chunk/atom bin/1d z center 1 units box
fix numDensChol chol ave/chunk 10 1000 10000 CHOL density/number     file numDensChol.zProfile

compute PHOS phos chunk/atom bin/1d z center 1 units box
fix numDensPhos phos ave/chunk 10 1000 10000 PHOS density/number     file numDensPhos.zProfile

compute GLY gly chunk/atom bin/1d z center 1 units box
fix numDensGly gly ave/chunk 10 1000 10000 GLY density/number     file numDensGly.zProfile

compute EST est chunk/atom bin/1d z center 1 units box
fix numDensEst est ave/chunk 10 1000 10000 EST density/number     file numDensEst.zProfile

compute TAIL tail chunk/atom bin/1d z center 1 units box
fix numDensTail tail ave/chunk 10 1000 10000 TAIL density/number     file numDensTail.zProfile

compute AMI ami chunk/atom bin/1d z center 1 units box
fix numDensAmi ami ave/chunk 10 1000 10000 AMI density/number     file numDensAmi.zProfile

compute S all chunk/atom bin/1d z center 1 units box

compute	stpa all stress/atom NULL
fix stress all ave/chunk 10 1000 10000 S c_stpa[1] c_stpa[2] c_stpa[3]     c_stpa[4] c_stpa[5] c_stpa[6] file stress.zProfile

compute	stke all stress/atom NULL ke
fix stressKE all ave/chunk 10 1000 10000 S c_stke[1] c_stke[2] c_stke[3]     c_stke[4] c_stke[5] c_stke[6] file stressKinEn.zProfile

compute	stnb all stress/atom NULL pair
fix stressNB all ave/chunk 10 1000 10000 S c_stnb[1] c_stnb[2] c_stnb[3]     c_stnb[4] c_stnb[5] c_stnb[6] file stressNonBond.zProfile

compute	stb all stress/atom NULL bond
fix stressB all ave/chunk 10 1000 10000 S c_stb[1] c_stb[2] c_stb[3]     c_stb[4] c_stb[5] c_stb[6] file stressBond.zProfile

compute	sta all stress/atom NULL angle
fix stressA all ave/chunk 10 1000 10000 S c_sta[1] c_sta[2] c_sta[3]     c_sta[4] c_sta[5] c_sta[6] file stressAngle.zProfile

compute	stv all stress/atom NULL virial # check this is redundant
fix stressV all ave/chunk 10 1000 10000 S c_stv[1] c_stv[2] c_stv[3]     c_stv[4] c_stv[5] c_stv[6] file stressVir.zProfile

compute H head chunk/atom bin/1d z center 1 units box
compute	chgH head property/atom q
fix qDensHead head ave/chunk 10 1000 10000 H c_chgH file qDensHead.zProfile

compute	dipGly gly property/atom muz
fix muzGly gly ave/chunk 10 1000 10000 GLY c_dipGly file muzGly.zProfile

compute	dipEst est property/atom muz
fix muzEst est ave/chunk 10 1000 10000 EST c_dipEst file muzEst.zProfile

compute	dipWat wat property/atom muz
fix muzWat wat ave/chunk 10 1000 10000 WAT c_dipWat file muzWat.zProfile

compute		msd gly msd com yes
fix 		msd gly ave/time 1 1 10 c_msd[4] file gly.msd

restart		10000 restart
run		10000
  1 neighbor list requests
  update every 1 steps, delay 0 steps, check yes
Step Press P Temp tempTot tempRot lipArea lipVol
0     1.462145            0    303.59017            0            0            0            0
Averages over the last 6 of 11 rows, steps 5000 to 10000:
Press P Temp tempTot tempRot lipArea lipVol
42.2764 -0.813988 302.808 303.353 303.49 69.2262 1292.17
Loop time of 681.111 on 1 procs for 10000 steps with 6016 atoms

Pair  time (%) = 581.699 (85.4044)
Bond  time (%) = 4.97258 (0.730069)
Neigh time (%) = 58.0058 (8.51635)
Comm  time (%) = 13.3074 (1.95377)
Outpt time (%) = 0.188265 (0.0276409)
Other time (%) = 22.9383 (3.36778)
