LAMMPS (10 Aug 2015)
# Reference: M. Orsi, Comparative assessment of the ELBA coarse-grained
# model for water, Molecular Physics, 112, 1566-1576 (2014)

units real
atom_style hybrid sphere dipole

lattice	sc 3.1065
Lattice spacing in x,y,z = 3.1065 3.1065 3.1065
region box block -4 4 -4 4 -4 4
create_box 1 box
Created orthogonal box = (-12.426 -12.426 -12.426) to (12.426 12.426 12.426)
create_atoms 1 box
Created 512 atoms

set group all dipole/random 12345678 0.541 # moment/(e*angstrom)
  512 settings made for dipole/random

pair_style lj/sf/dipole/sf 12. # rCut/angstrom
pair_coeff 1 1 0.55 3.05 # epsilon_ij/(kcal/mol), sigma_ij/angstrom

variable Mass equal 18.0153 # g/mol
mass 1 18.0153
set group all mass 18.0153
  512 settings made for mass

variable Inertia equal 30.0 # amu*A^2
variable Diameter equal 2*sqrt(5*30/(2*18.0153))
set group all diameter 4.08074895471897
  512 settings made for diameter

variable Nequil equal 15000
variable Nrun equal 3000
variable Nthermo equal 15000/20
variable Ne equal 10
variable Nr equal 750/10
variable Nf equal 750

variable Natoms equal atoms

variable Text equal 298
velocity all create 298 1234

neighbor 2 bin
neigh_modify every 1 delay 0 check yes

timestep 10.0

fix integrate all nve/sphere update dipole
fix thermostat all langevin 298 298 100 1234 zero yes

compute totT all temp/sphere dof all
compute_modify totT extra 512
fix totT all ave/time 10 75 750 c_totT

compute	rotT all temp/sphere dof rotate
compute_modify rotT extra 512
fix rotT all ave/time 10 75 750 c_rotT

compute keRot all erotate/sphere
fix keRot all ave/time 10 75 750 c_keRot

variable ke equal ke
fix keAve all ave/time 10 75 750 v_ke

variable pe equal pe
fix peAve all ave/time 10 75 750 v_pe

variable etotal equal etotal
fix etotAve all ave/time 10 75 750 v_etotal

thermo_style custom step temp f_totT f_rotT press f_keRot f_keAve f_peAve 	     pe f_etotAve
thermo_modify flush yes temp totT
thermo 750

run 15000
  1 neighbor list requests
  update every 1 steps, delay 0 steps, check yes
Step Temp totT rotT Press keRot keAve peAve PotEng etotAve
0    178.45078            0            0    14172.845            0            0            0    -1299.751            0
Averages over the last 11 of 21 rows, steps 7500 to 15000:
Temp totT rotT Press keRot keAve peAve PotEng etotAve
301.318 298.575 300.541 981.983 305.786 759.463 -4767.02 -4769.73 -4007.55
Loop time of 131.648 on 1 procs for 15000 steps with 512 atoms

Pair  time (%) = 119.757 (90.9674)
Neigh time (%) = 6.3538 (4.82636)
Comm  time (%) = 3.87758 (2.94542)
Outpt time (%) = 0.0012393 (0.000941375)
Other time (%) = 1.65854 (1.25983)

unfix thermostat
variable PE equal pe
variable KE equal ke
variable E equal etotal

run 3000
Step Temp totT rotT Press keRot keAve peAve PotEng etotAve
15000    311.65011    298.14628    302.94826    1231.6363    308.23465    758.37219   -4772.8438   -4744.0531   -4014.4716
Loop time of 34.9375 on 1 procs for 3000 steps with 512 atoms

Pair  time (%) = 32.2865 (92.4122)
Neigh time (%) = 1.51129 (4.3257)
Comm  time (%) = 0.867615 (2.48334)
Outpt time (%) = 0.000167847 (0.00048042)
Other time (%) = 0.27192 (0.778304)
